<?xml version='1.0' encoding='utf-8'?>
<additional xmlns:xsi="http://www.w3.org/2001/XMLSchema-instance" xsi:noNamespaceSchemaLocation="http://sumo.dlr.de/xsd/additional_file.xsd">
  <inductionLoop id="400971_1" lane="851553864.224_3" pos="188.70" period="300.00" file="det_data.xml" />
  <inductionLoop id="400971_2" lane="851553864.224_2" pos="189.13" period="300.00" file="det_data.xml" />
  <inductionLoop id="400971_3" lane="851553864.224_1" pos="189.95" period="300.00" file="det_data.xml" />
  <inductionLoop id="400971_4" lane="851553864.224_0" pos="190.62" period="300.00" file="det_data.xml" />
  <inductionLoop id="402364_1" lane="157607510_3" pos="154.94" period="300.00" file="det_data.xml" />
  <inductionLoop id="402364_2" lane="157607510_2" pos="154.59" period="300.00" file="det_data.xml" />
  <inductionLoop id="402364_3" lane="157607510_1" pos="155.13" period="300.00" file="det_data.xml" />
  <inductionLoop id="402364_4" lane="157607510_0" pos="154.91" period="300.00" file="det_data.xml" />
  <inductionLoop id="409528_1" lane="30959001.574_2" pos="114.86" period="300.00" file="det_data.xml" />
  <inductionLoop id="409528_2" lane="30959001.574_1" pos="115.66" period="300.00" file="det_data.xml" />
  <inductionLoop id="409528_3" lane="30959001.574_0" pos="116.99" period="300.00" file="det_data.xml" />
  <inductionLoop id="422357_1" lane="508479326-AddedOnRampEdge.22_3" pos="69.05" period="300.00" file="det_data.xml" />
  <inductionLoop id="422357_2" lane="508479326-AddedOnRampEdge.22_2" pos="69.05" period="300.00" file="det_data.xml" />
  <inductionLoop id="422357_3" lane="508479326-AddedOnRampEdge.22_1" pos="68.75" period="300.00" file="det_data.xml" />
  <inductionLoop id="422357_4" lane="508479326-AddedOnRampEdge.22_0" pos="68.64" period="300.00" file="det_data.xml" />
</additional>