<?xml version='1.0' encoding='utf-8'?>
<additional xmlns:xsi="http://www.w3.org/2001/XMLSchema-instance" xsi:noNamespaceSchemaLocation="http://sumo.dlr.de/xsd/additional_file.xsd">
  <inductionLoop id="400030_1" lane="172165117_3" pos="269.32" period="300.00" file="det_data.xml" />
  <inductionLoop id="400030_2" lane="172165117_2" pos="269.84" period="300.00" file="det_data.xml" />
  <inductionLoop id="400030_3" lane="172165117_1" pos="268.95" period="300.00" file="det_data.xml" />
  <inductionLoop id="400030_4" lane="172165117_0" pos="269.87" period="300.00" file="det_data.xml" />
  <inductionLoop id="400109_1" lane="508479370#0.358_3" pos="319.99" period="300.00" file="det_data.xml" />
  <inductionLoop id="400109_2" lane="508479370#0.358_2" pos="320.04" period="300.00" file="det_data.xml" />
  <inductionLoop id="400109_3" lane="508479370#0.358_1" pos="320.57" period="300.00" file="det_data.xml" />
  <inductionLoop id="400109_4" lane="508479370#0.358_0" pos="320.84" period="300.00" file="det_data.xml" />
  <inductionLoop id="400911_1" lane="28414349#1_3" pos="337.45" period="300.00" file="det_data.xml" />
  <inductionLoop id="400911_2" lane="28414349#1_2" pos="337.37" period="300.00" file="det_data.xml" />
  <inductionLoop id="400911_3" lane="28414349#1_1" pos="337.44" period="300.00" file="det_data.xml" />
  <inductionLoop id="400911_4" lane="28414349#1_0" pos="337.00" period="300.00" file="det_data.xml" />
  <inductionLoop id="400965_1" lane="157607513#1.343_4" pos="302.10" period="300.00" file="det_data.xml" />
  <inductionLoop id="400965_2" lane="157607513#1.343_3" pos="302.20" period="300.00" file="det_data.xml" />
  <inductionLoop id="400965_3" lane="157607513#1.343_2" pos="302.86" period="300.00" file="det_data.xml" />
  <inductionLoop id="400965_4" lane="157607513#1.343_1" pos="303.09" period="300.00" file="det_data.xml" />
  <inductionLoop id="400965_5" lane="157607513#1.343_0" pos="302.86" period="300.00" file="det_data.xml" />
  <inductionLoop id="400971_1" lane="851553864.224_3" pos="188.70" period="300.00" file="det_data.xml" />
  <inductionLoop id="400971_2" lane="851553864.224_2" pos="189.13" period="300.00" file="det_data.xml" />
  <inductionLoop id="400971_3" lane="851553864.224_1" pos="189.95" period="300.00" file="det_data.xml" />
  <inductionLoop id="400971_4" lane="851553864.224_0" pos="190.62" period="300.00" file="det_data.xml" />
  <inductionLoop id="401541_1" lane="28414204#0_2" pos="193.09" period="300.00" file="det_data.xml" />
  <inductionLoop id="401541_2" lane="28414204#0_1" pos="191.75" period="300.00" file="det_data.xml" />
  <inductionLoop id="401541_3" lane="28414204#0_0" pos="190.89" period="300.00" file="det_data.xml" />
  <inductionLoop id="401816_1" lane="395368020_1" pos="65.41" period="300.00" file="det_data.xml" />
  <inductionLoop id="401816_2" lane="395368020_0" pos="65.08" period="300.00" file="det_data.xml" />
  <inductionLoop id="401817_1" lane="687721973_3" pos="473.30" period="300.00" file="det_data.xml" />
  <inductionLoop id="401817_2" lane="687721973_2" pos="472.65" period="300.00" file="det_data.xml" />
  <inductionLoop id="401817_3" lane="687721973_1" pos="472.64" period="300.00" file="det_data.xml" />
  <inductionLoop id="401817_4" lane="687721973_0" pos="472.00" period="300.00" file="det_data.xml" />
  <inductionLoop id="402121_1" lane="28464124.151_3" pos="26.91" period="300.00" file="det_data.xml" />
  <inductionLoop id="402121_2" lane="28464124.151_2" pos="28.53" period="300.00" file="det_data.xml" />
  <inductionLoop id="402121_3" lane="28464124.151_1" pos="30.55" period="300.00" file="det_data.xml" />
  <inductionLoop id="402121_4" lane="28464124.151_0" pos="32.44" period="300.00" file="det_data.xml" />
  <inductionLoop id="402362_1" lane="157607513#0_4" pos="79.20" period="300.00" file="det_data.xml" />
  <inductionLoop id="402362_2" lane="157607513#0_3" pos="79.56" period="300.00" file="det_data.xml" />
  <inductionLoop id="402362_3" lane="157607513#0_2" pos="78.85" period="300.00" file="det_data.xml" />
  <inductionLoop id="402362_4" lane="157607513#0_1" pos="79.15" period="300.00" file="det_data.xml" />
  <inductionLoop id="402362_5" lane="157607513#0_0" pos="81.04" period="300.00" file="det_data.xml" />
  <inductionLoop id="402363_1" lane="508479370#1_3" pos="901.95" period="300.00" file="det_data.xml" />
  <inductionLoop id="402363_2" lane="508479370#1_2" pos="901.34" period="300.00" file="det_data.xml" />
  <inductionLoop id="402363_3" lane="508479370#1_1" pos="900.96" period="300.00" file="det_data.xml" />
  <inductionLoop id="402363_4" lane="508479370#1_0" pos="901.52" period="300.00" file="det_data.xml" />
  <inductionLoop id="402364_1" lane="157607510_3" pos="154.94" period="300.00" file="det_data.xml" />
  <inductionLoop id="402364_2" lane="157607510_2" pos="154.59" period="300.00" file="det_data.xml" />
  <inductionLoop id="402364_3" lane="157607510_1" pos="155.13" period="300.00" file="det_data.xml" />
  <inductionLoop id="402364_4" lane="157607510_0" pos="154.91" period="300.00" file="det_data.xml" />
  <inductionLoop id="402365_1" lane="867203204_4" pos="222.91" period="300.00" file="det_data.xml" />
  <inductionLoop id="402365_2" lane="867203204_3" pos="222.77" period="300.00" file="det_data.xml" />
  <inductionLoop id="402365_3" lane="867203204_2" pos="222.76" period="300.00" file="det_data.xml" />
  <inductionLoop id="402365_4" lane="867203204_1" pos="222.88" period="300.00" file="det_data.xml" />
  <inductionLoop id="402365_5" lane="867203204_0" pos="224.01" period="300.00" file="det_data.xml" />
  <inductionLoop id="403265_1" lane="395439805.225_2" pos="163.72" period="300.00" file="det_data.xml" />
  <inductionLoop id="403265_2" lane="395439805.225_1" pos="163.49" period="300.00" file="det_data.xml" />
  <inductionLoop id="403265_3" lane="395439805.225_0" pos="163.07" period="300.00" file="det_data.xml" />
  <inductionLoop id="400343_1" lane="395439802_2" pos="190.15" period="300.00" file="det_data.xml" />
  <inductionLoop id="400343_2" lane="395439802_1" pos="191.25" period="300.00" file="det_data.xml" />
  <inductionLoop id="400343_3" lane="395439802_0" pos="191.37" period="300.00" file="det_data.xml" />
  <inductionLoop id="409525_1" lane="850746591_2" pos="498.14" period="300.00" file="det_data.xml" />
  <inductionLoop id="409525_2" lane="850746591_1" pos="498.14" period="300.00" file="det_data.xml" />
  <inductionLoop id="409525_3" lane="850746591_0" pos="497.75" period="300.00" file="det_data.xml" />
  <inductionLoop id="409528_1" lane="30959001.574_2" pos="114.86" period="300.00" file="det_data.xml" />
  <inductionLoop id="409528_2" lane="30959001.574_1" pos="115.66" period="300.00" file="det_data.xml" />
  <inductionLoop id="409528_3" lane="30959001.574_0" pos="116.99" period="300.00" file="det_data.xml" />
  <inductionLoop id="422357_1" lane="508479326-AddedOnRampEdge.22_3" pos="69.05" period="300.00" file="det_data.xml" />
  <inductionLoop id="422357_2" lane="508479326-AddedOnRampEdge.22_2" pos="69.05" period="300.00" file="det_data.xml" />
  <inductionLoop id="422357_3" lane="508479326-AddedOnRampEdge.22_1" pos="68.75" period="300.00" file="det_data.xml" />
  <inductionLoop id="422357_4" lane="508479326-AddedOnRampEdge.22_0" pos="68.64" period="300.00" file="det_data.xml" />
  <inductionLoop id="422359_1" lane="851555734_3" pos="319.67" period="300.00" file="det_data.xml" />
  <inductionLoop id="422359_2" lane="851555734_2" pos="318.58" period="300.00" file="det_data.xml" />
  <inductionLoop id="422359_3" lane="851555734_1" pos="317.41" period="300.00" file="det_data.xml" />
  <inductionLoop id="422359_4" lane="851555734_0" pos="316.72" period="300.00" file="det_data.xml" />
</additional>